src/NexusPy/modules/Electrical-System-PandaPower/PDWCaseManger/assets/10_barras.PWF
TITU
SISTEMA 10 BARRAS TESTE
DBAR
    1  1          1.040   0.00                                          1
    2  1          1.000   0.00      20.0   10.0                         1
    3  1          1.000   0.00      25.0   12.0                         1
    4  1          1.000   0.00      30.0   15.0                         1
    5  1          1.000   0.00      10.0    5.0                         1
    6  1          1.000   0.00      40.0   20.0                         1
    7  1          1.000   0.00      15.0    8.0                         1
    8  1          1.000   0.00      20.0   10.0                         1
    9  1          1.000   0.00      25.0   12.0                         1
   10  1          1.000   0.00      30.0   15.0                         1
9999
DLIN
    1    2 1  0.0100  0.0500  0.0100
    2    3 1  0.0100  0.0500  0.0100
    3    4 1  0.0200  0.0800  0.0100
    4    5 1  0.0200  0.0800  0.0100
    5    6 1  0.0150  0.0600  0.0100
    6    7 1  0.0150  0.0600  0.0100
    7    8 1  0.0200  0.0900  0.0100
    8    9 1  0.0100  0.0400  0.0100
    9   10 1  0.0100  0.0400  0.0100
9999
FIM
